FoamFile
{
    version     2.0;
    format      ascii;
    class       dictionary;
    location    "constant/fluid";
    object      thermophysicalProperties;
}

thermoType
{
    type            heRhoThermo;
    mixture         pureMixture;
    transport       const;
    thermo          hConst;
    equationOfState rhoConst;
    specie          specie;
    energy          sensibleEnthalpy;
}

mixture
{
    specie
    {
        molWeight   28.96;   // Air
    }
    thermodynamics
    {
        Cp          1005;    // J/kg/K (air at 20°C)
        Hf          300000;  // Reference enthalpy offset to keep h positive
    }
    transport
    {
        mu          1.8e-5;  // Pa.s (air at 20°C)
        Pr          0.71;
    }
    equationOfState
    {
        rho         1.18;    // kg/m³
    }
}
