
FoamFile
{
    version     2.0;
    format      ascii;
    class       dictionary;
    object      thermophysicalProperties;
}
thermoType
{
    type            heRhoThermo;
    mixture         pureMixture;
    transport       const;
    thermo          hConst;
    equationOfState rhoConst; // Better for water than perfectGas
    specie          specie;
    energy          sensibleEnthalpy;
}
mixture
{
    specie { molWeight 18.0; }
    thermodynamics { Cp 4182; Hf 0; }
    transport { mu 0.001; Pr 7; }
    equationOfState { rho 998; }
}

